<additional xmlns:xsi="http://www.w3.org/2001/XMLSchema-instance" xsi:noNamespaceSchemaLocation="http://sumo.dlr.de/xsd/additional_file.xsd"><e1Detector file="e1output.xml" freq="900" friendlyPos="x" id="e1det_-186973297#3_0" lane="-186973297#3_0" pos="-0.00001" /><e1Detector file="e1output.xml" freq="900" friendlyPos="x" id="e1det_-215300495#1_0" lane="-215300495#1_0" pos="0.00001" /><e1Detector file="e1output.xml" freq="900" friendlyPos="x" id="e1det_-247496636#2_0" lane="-247496636#2_0" pos="-0.00001" /><e1Detector file="e1output.xml" freq="900" friendlyPos="x" id="e1det_-247496636#2_1" lane="-247496636#2_1" pos="-0.00001" /><e1Detector file="e1output.xml" freq="900" friendlyPos="x" id="e1det_-325023891#1_0" lane="-325023891#1_0" pos="0.00001" /><e1Detector file="e1output.xml" freq="900" friendlyPos="x" id="e1det_-495887491#2_0" lane="-495887491#2_0" pos="0.00001" /><e1Detector file="e1output.xml" freq="900" friendlyPos="x" id="e1det_-505291182#1_0" lane="-505291182#1_0" pos="0.00001" /><e1Detector file="e1output.xml" freq="900" friendlyPos="x" id="e1det_114017937#0_0" lane="114017937#0_0" pos="0.00001" /><e1Detector file="e1output.xml" freq="900" friendlyPos="x" id="e1det_114017937#0_1" lane="114017937#0_1" pos="0.00001" /><e1Detector file="e1output.xml" freq="900" friendlyPos="x" id="e1det_114017937#0_2" lane="114017937#0_2" pos="0.00001" /><e1Detector file="e1output.xml" freq="900" friendlyPos="x" id="e1det_114017938_0" lane="114017938_0" pos="-0.00001" /><e1Detector file="e1output.xml" freq="900" friendlyPos="x" id="e1det_114017938_1" lane="114017938_1" pos="-0.00001" /><e1Detector file="e1output.xml" freq="900" friendlyPos="x" id="e1det_114017938_2" lane="114017938_2" pos="-0.00001" /><e1Detector file="e1output.xml" freq="900" friendlyPos="x" id="e1det_114017938_3" lane="114017938_3" pos="-0.00001" /><e1Detector file="e1output.xml" freq="900" friendlyPos="x" id="e1det_114017941#1_0" lane="114017941#1_0" pos="-0.00001" /><e1Detector file="e1output.xml" freq="900" friendlyPos="x" id="e1det_114017941#1_1" lane="114017941#1_1" pos="-0.00001" /><e1Detector file="e1output.xml" freq="900" friendlyPos="x" id="e1det_114017941#1_2" lane="114017941#1_2" pos="-0.00001" /><e1Detector file="e1output.xml" freq="900" friendlyPos="x" id="e1det_173488366#0_0" lane="173488366#0_0" pos="0.00001" /><e1Detector file="e1output.xml" freq="900" friendlyPos="x" id="e1det_173488366#0_1" lane="173488366#0_1" pos="0.00001" /><e1Detector file="e1output.xml" freq="900" friendlyPos="x" id="e1det_173488366#0_2" lane="173488366#0_2" pos="0.00001" /><e1Detector file="e1output.xml" freq="900" friendlyPos="x" id="e1det_186973297#2_0" lane="186973297#2_0" pos="0.00001" /><e1Detector file="e1output.xml" freq="900" friendlyPos="x" id="e1det_186973314_0" lane="186973314_0" pos="-0.00001" /><e1Detector file="e1output.xml" freq="900" friendlyPos="x" id="e1det_186973314_1" lane="186973314_1" pos="-0.00001" /><e1Detector file="e1output.xml" freq="900" friendlyPos="x" id="e1det_186973315#1_0" lane="186973315#1_0" pos="0.0" /><e1Detector file="e1output.xml" freq="900" friendlyPos="x" id="e1det_186973315#1_1" lane="186973315#1_1" pos="0.0" /><e1Detector file="e1output.xml" freq="900" friendlyPos="x" id="e1det_186973315#3_0" lane="186973315#3_0" pos="0.00001" /><e1Detector file="e1output.xml" freq="900" friendlyPos="x" id="e1det_186973315#3_1" lane="186973315#3_1" pos="0.00001" /><e1Detector file="e1output.xml" freq="900" friendlyPos="x" id="e1det_187024719_0" lane="187024719_0" pos="0.00001" /><e1Detector file="e1output.xml" freq="900" friendlyPos="x" id="e1det_187024719_1" lane="187024719_1" pos="0.00001" /><e1Detector file="e1output.xml" freq="900" friendlyPos="x" id="e1det_187405596#0_0" lane="187405596#0_0" pos="-0.00001" /><e1Detector file="e1output.xml" freq="900" friendlyPos="x" id="e1det_187405596#0_1" lane="187405596#0_1" pos="-0.00001" /><e1Detector file="e1output.xml" freq="900" friendlyPos="x" id="e1det_215300494#0_0" lane="215300494#0_0" pos="0.0" /><e1Detector file="e1output.xml" freq="900" friendlyPos="x" id="e1det_215300494#0_1" lane="215300494#0_1" pos="0.0" /><e1Detector file="e1output.xml" freq="900" friendlyPos="x" id="e1det_215300494#0_2" lane="215300494#0_2" pos="0.0" /><e1Detector file="e1output.xml" freq="900" friendlyPos="x" id="e1det_22734251_0" lane="22734251_0" pos="0.00001" /><e1Detector file="e1output.xml" freq="900" friendlyPos="x" id="e1det_22734251_1" lane="22734251_1" pos="0.00001" /><e1Detector file="e1output.xml" freq="900" friendlyPos="x" id="e1det_22734251_2" lane="22734251_2" pos="0.00001" /><e1Detector file="e1output.xml" freq="900" friendlyPos="x" id="e1det_247496636#1_0" lane="247496636#1_0" pos="0.00001" /><e1Detector file="e1output.xml" freq="900" friendlyPos="x" id="e1det_247496636#1_1" lane="247496636#1_1" pos="0.00001" /><e1Detector file="e1output.xml" freq="900" friendlyPos="x" id="e1det_286864434#5_0" lane="286864434#5_0" pos="0.0" /><e1Detector file="e1output.xml" freq="900" friendlyPos="x" id="e1det_286864434#5_1" lane="286864434#5_1" pos="0.0" /><e1Detector file="e1output.xml" freq="900" friendlyPos="x" id="e1det_286864434#5_2" lane="286864434#5_2" pos="0.0" /><e1Detector file="e1output.xml" freq="900" friendlyPos="x" id="e1det_286864434#5_3" lane="286864434#5_3" pos="0.0" /><e1Detector file="e1output.xml" freq="900" friendlyPos="x" id="e1det_286864436#1_0" lane="286864436#1_0" pos="-0.00001" /><e1Detector file="e1output.xml" freq="900" friendlyPos="x" id="e1det_286864436#1_1" lane="286864436#1_1" pos="-0.00001" /><e1Detector file="e1output.xml" freq="900" friendlyPos="x" id="e1det_286864436#1_2" lane="286864436#1_2" pos="-0.00001" /><e1Detector file="e1output.xml" freq="900" friendlyPos="x" id="e1det_286864439_0" lane="286864439_0" pos="0.00001" /><e1Detector file="e1output.xml" freq="900" friendlyPos="x" id="e1det_286864439_1" lane="286864439_1" pos="0.00001" /><e1Detector file="e1output.xml" freq="900" friendlyPos="x" id="e1det_303103884_0" lane="303103884_0" pos="0.0" /><e1Detector file="e1output.xml" freq="900" friendlyPos="x" id="e1det_303103884_1" lane="303103884_1" pos="0.0" /><e1Detector file="e1output.xml" freq="900" friendlyPos="x" id="e1det_303103884_2" lane="303103884_2" pos="0.0" /><e1Detector file="e1output.xml" freq="900" friendlyPos="x" id="e1det_303103884_3" lane="303103884_3" pos="0.0" /><e1Detector file="e1output.xml" freq="900" friendlyPos="x" id="e1det_303103884_4" lane="303103884_4" pos="0.0" /><e1Detector file="e1output.xml" freq="900" friendlyPos="x" id="e1det_303104545#1_0" lane="303104545#1_0" pos="0.0" /><e1Detector file="e1output.xml" freq="900" friendlyPos="x" id="e1det_303104545#1_1" lane="303104545#1_1" pos="0.0" /><e1Detector file="e1output.xml" freq="900" friendlyPos="x" id="e1det_303104545#1_2" lane="303104545#1_2" pos="0.0" /><e1Detector file="e1output.xml" freq="900" friendlyPos="x" id="e1det_306971836_0" lane="306971836_0" pos="-0.00001" /><e1Detector file="e1output.xml" freq="900" friendlyPos="x" id="e1det_306971836_1" lane="306971836_1" pos="-0.00001" /><e1Detector file="e1output.xml" freq="900" friendlyPos="x" id="e1det_306971836_2" lane="306971836_2" pos="-0.00001" /><e1Detector file="e1output.xml" freq="900" friendlyPos="x" id="e1det_306971836_3" lane="306971836_3" pos="-0.00001" /><e1Detector file="e1output.xml" freq="900" friendlyPos="x" id="e1det_306971836_4" lane="306971836_4" pos="-0.00001" /><e1Detector file="e1output.xml" freq="900" friendlyPos="x" id="e1det_306972193#0_0" lane="306972193#0_0" pos="0.0" /><e1Detector file="e1output.xml" freq="900" friendlyPos="x" id="e1det_306972193#0_1" lane="306972193#0_1" pos="0.0" /><e1Detector file="e1output.xml" freq="900" friendlyPos="x" id="e1det_306972193#0_2" lane="306972193#0_2" pos="0.0" /><e1Detector file="e1output.xml" freq="900" friendlyPos="x" id="e1det_306972197#0_0" lane="306972197#0_0" pos="0.0" /><e1Detector file="e1output.xml" freq="900" friendlyPos="x" id="e1det_306972197#0_1" lane="306972197#0_1" pos="0.0" /><e1Detector file="e1output.xml" freq="900" friendlyPos="x" id="e1det_306972197#0_2" lane="306972197#0_2" pos="0.0" /><e1Detector file="e1output.xml" freq="900" friendlyPos="x" id="e1det_306995774#0_0" lane="306995774#0_0" pos="-0.00001" /><e1Detector file="e1output.xml" freq="900" friendlyPos="x" id="e1det_306995774#0_1" lane="306995774#0_1" pos="-0.00001" /><e1Detector file="e1output.xml" freq="900" friendlyPos="x" id="e1det_306995774#0_2" lane="306995774#0_2" pos="-0.00001" /><e1Detector file="e1output.xml" freq="900" friendlyPos="x" id="e1det_306995774#0_3" lane="306995774#0_3" pos="-0.00001" /><e1Detector file="e1output.xml" freq="900" friendlyPos="x" id="e1det_306995774#0_4" lane="306995774#0_4" pos="-0.00001" /><e1Detector file="e1output.xml" freq="900" friendlyPos="x" id="e1det_31586000#2_0" lane="31586000#2_0" pos="0.00001" /><e1Detector file="e1output.xml" freq="900" friendlyPos="x" id="e1det_31586000#2_1" lane="31586000#2_1" pos="0.00001" /><e1Detector file="e1output.xml" freq="900" friendlyPos="x" id="e1det_325023885_0" lane="325023885_0" pos="0.0" /><e1Detector file="e1output.xml" freq="900" friendlyPos="x" id="e1det_325023885_1" lane="325023885_1" pos="0.0" /><e1Detector file="e1output.xml" freq="900" friendlyPos="x" id="e1det_325023885_2" lane="325023885_2" pos="0.0" /><e1Detector file="e1output.xml" freq="900" friendlyPos="x" id="e1det_325023885_3" lane="325023885_3" pos="0.0" /><e1Detector file="e1output.xml" freq="900" friendlyPos="x" id="e1det_325023886#0_0" lane="325023886#0_0" pos="0.0" /><e1Detector file="e1output.xml" freq="900" friendlyPos="x" id="e1det_325023886#0_1" lane="325023886#0_1" pos="0.0" /><e1Detector file="e1output.xml" freq="900" friendlyPos="x" id="e1det_325023886#0_2" lane="325023886#0_2" pos="0.0" /><e1Detector file="e1output.xml" freq="900" friendlyPos="x" id="e1det_325023886#0_3" lane="325023886#0_3" pos="0.0" /><e1Detector file="e1output.xml" freq="900" friendlyPos="x" id="e1det_325023886#0_4" lane="325023886#0_4" pos="0.0" /><e1Detector file="e1output.xml" freq="900" friendlyPos="x" id="e1det_325023891#0_0" lane="325023891#0_0" pos="-0.00001" /><e1Detector file="e1output.xml" freq="900" friendlyPos="x" id="e1det_325023891#0_1" lane="325023891#0_1" pos="-0.00001" /><e1Detector file="e1output.xml" freq="900" friendlyPos="x" id="e1det_325023891#0_2" lane="325023891#0_2" pos="-0.00001" /><e1Detector file="e1output.xml" freq="900" friendlyPos="x" id="e1det_353537461#1_0" lane="353537461#1_0" pos="0.0" /><e1Detector file="e1output.xml" freq="900" friendlyPos="x" id="e1det_353537461#1_1" lane="353537461#1_1" pos="0.0" /><e1Detector file="e1output.xml" freq="900" friendlyPos="x" id="e1det_353537461#1_2" lane="353537461#1_2" pos="0.0" /><e1Detector file="e1output.xml" freq="900" friendlyPos="x" id="e1det_353537461#1_3" lane="353537461#1_3" pos="0.0" /><e1Detector file="e1output.xml" freq="900" friendlyPos="x" id="e1det_353537461#1_4" lane="353537461#1_4" pos="0.0" /><e1Detector file="e1output.xml" freq="900" friendlyPos="x" id="e1det_353537463_0" lane="353537463_0" pos="0.0" /><e1Detector file="e1output.xml" freq="900" friendlyPos="x" id="e1det_353537463_1" lane="353537463_1" pos="0.0" /><e1Detector file="e1output.xml" freq="900" friendlyPos="x" id="e1det_353537463_2" lane="353537463_2" pos="0.0" /><e1Detector file="e1output.xml" freq="900" friendlyPos="x" id="e1det_353537463_3" lane="353537463_3" pos="0.0" /><e1Detector file="e1output.xml" freq="900" friendlyPos="x" id="e1det_353537463_4" lane="353537463_4" pos="0.0" /><e1Detector file="e1output.xml" freq="900" friendlyPos="x" id="e1det_359672643#0_0" lane="359672643#0_0" pos="0.0" /><e1Detector file="e1output.xml" freq="900" friendlyPos="x" id="e1det_359672643#0_1" lane="359672643#0_1" pos="0.0" /><e1Detector file="e1output.xml" freq="900" friendlyPos="x" id="e1det_359672643#0_2" lane="359672643#0_2" pos="0.0" /><e1Detector file="e1output.xml" freq="900" friendlyPos="x" id="e1det_359672643#0_3" lane="359672643#0_3" pos="0.0" /><e1Detector file="e1output.xml" freq="900" friendlyPos="x" id="e1det_37697522#0_0" lane="37697522#0_0" pos="-0.00001" /><e1Detector file="e1output.xml" freq="900" friendlyPos="x" id="e1det_37697522#0_1" lane="37697522#0_1" pos="-0.00001" /><e1Detector file="e1output.xml" freq="900" friendlyPos="x" id="e1det_37697522#0_2" lane="37697522#0_2" pos="-0.00001" /><e1Detector file="e1output.xml" freq="900" friendlyPos="x" id="e1det_37697524#3_0" lane="37697524#3_0" pos="0.0" /><e1Detector file="e1output.xml" freq="900" friendlyPos="x" id="e1det_37697524#3_1" lane="37697524#3_1" pos="0.0" /><e1Detector file="e1output.xml" freq="900" friendlyPos="x" id="e1det_37697524#3_2" lane="37697524#3_2" pos="0.0" /><e1Detector file="e1output.xml" freq="900" friendlyPos="x" id="e1det_37698278#7_0" lane="37698278#7_0" pos="0.0" /><e1Detector file="e1output.xml" freq="900" friendlyPos="x" id="e1det_37698278#7_1" lane="37698278#7_1" pos="0.0" /><e1Detector file="e1output.xml" freq="900" friendlyPos="x" id="e1det_37698278#7_2" lane="37698278#7_2" pos="0.0" /><e1Detector file="e1output.xml" freq="900" friendlyPos="x" id="e1det_495887491#2_0" lane="495887491#2_0" pos="-0.00001" /><e1Detector file="e1output.xml" freq="900" friendlyPos="x" id="e1det_505291182#1_0" lane="505291182#1_0" pos="-0.00001" /><e1Detector file="e1output.xml" freq="900" friendlyPos="x" id="e1det_506911401_0" lane="506911401_0" pos="-0.00001" /><e1Detector file="e1output.xml" freq="900" friendlyPos="x" id="e1det_506911401_1" lane="506911401_1" pos="-0.00001" /><e1Detector file="e1output.xml" freq="900" friendlyPos="x" id="e1det_53183242#1_0" lane="53183242#1_0" pos="0.00001" /><e1Detector file="e1output.xml" freq="900" friendlyPos="x" id="e1det_53183246#0_0" lane="53183246#0_0" pos="-0.00001" /><e1Detector file="e1output.xml" freq="900" friendlyPos="x" id="e1det_53183246#0_1" lane="53183246#0_1" pos="-0.00001" /><e1Detector file="e1output.xml" freq="900" friendlyPos="x" id="e1det_634946213_0" lane="634946213_0" pos="0.00001" /><e1Detector file="e1output.xml" freq="900" friendlyPos="x" id="e1det_634946213_1" lane="634946213_1" pos="0.00001" /></additional>